Version,
  24.2;   ! Version Identifier Def: 24.2, #1
