Version,
  9.6;   ! Version Identifier Def: 9.6, #1
