Version,
  9.4;   ! Version Identifier Def: 9.4, #1
